
;;____________________________________________________________________________________________________
[TITLE]
;;Project Title/Notes

;;____________________________________________________________________________________________________
[OPTIONS]
;;Option             Value
FLOW_UNITS           CMS
INFILTRATION         CURVE_NUMBER
FLOW_ROUTING         DYNWAVE
LINK_OFFSETS         DEPTH
MIN_SLOPE            0
ALLOW_PONDING        NO
SKIP_STEADY_STATE    NO

START_DATE           06/24/2020
START_TIME           00:00:00
REPORT_START_DATE    06/24/2020
REPORT_START_TIME    00:00:00
END_DATE             06/25/2020
END_TIME             23:45:00
SWEEP_START          01/01
SWEEP_END            12/31
DRY_DAYS             0
REPORT_STEP          00:15:00
WET_STEP             00:15:00
DRY_STEP             00:15:00
ROUTING_STEP         0:00:30 
RULE_STEP            00:00:00

INERTIAL_DAMPING     PARTIAL
NORMAL_FLOW_LIMITED  BOTH
FORCE_MAIN_EQUATION  D-W
VARIABLE_STEP        0.75
LENGTHENING_STEP     0
MIN_SURFAREA         1.167
MAX_TRIALS           8
HEAD_TOLERANCE       0.0015
SYS_FLOW_TOL         5
LAT_FLOW_TOL         5
MINIMUM_STEP         0.5
THREADS              1

;;____________________________________________________________________________________________________
[REPORT]
;;Reporting Options
SUBCATCHMENTS ALL
NODES ALL
LINKS ALL

;;____________________________________________________________________________________________________
[EVAPORATION]
;;Data Source    Parameters
;;-------------- ----------------
CONSTANT         0.0
DRY_ONLY         NO

;;____________________________________________________________________________________________________
[JUNCTIONS]
;;Name           Elevation  MaxDepth   InitDepth  SurDepth   Aponded   
;;-------------- ---------- ---------- ---------- ---------- ----------
1                34.69974956 3.03935185 0          0          0         
2                35.01514196 2.516458992 0          0          0         
3                35.32765292 2.395747196 0          0          0         
4                35.64611468 2.162086156 0          0          0         
5                35.96081804 4.389382613 0          0          0         
6                36.27476972 4.075430933 0          0          0         
7                36.58790708 3.762293573 0          0          0         
8                36.9022346 3.447966053 0          0          0         
9                37.21568516 3.134515493 0          0          0         
10               37.53358316 2.816617493 0          0          0         
11               37.84803596 2.502164693 0          0          0         
12               38.16248876 5.26191157 0          0          0         
13               38.47625252 4.94814781 0          0          0         
14               38.79214604 4.63225429 0          0          0         
15               39.10616036 4.31823997 0          0          0         
16               39.42618812 3.99821221 0          0          0         
17               39.74064092 3.68375941 0          0          0         
18               40.05791252 3.36648781 0          0          0         
19               40.3781282 3.04627213 0          0          0         
20               40.69471076 2.72968957 0          0          0         
21               41.03860436 2.38579597 0          0          0         
22               41.36057396 2.06382637 0          0          0         
23               41.6973266 1.72707373 0          0          0         
24               42.01747964 1.40692069 0          0          0         
25               42.1389386 1.28546173 0          0          0         
26               42.32297492 3.918625117 0          0          0         
27               42.64870292 3.592897117 0          0          0         
28               42.96440852 3.277191517 0          0          0         
29               43.41598028 2.825619757 0          0          0         
30               43.7656994 2.475900637 0          0          0         
31               44.090801  2.150799037 0          0          0         
32               44.40600548 1.835594557 0          0          0         
33               44.7284762 1.513123837 0          0          0         
34               45.04317956 1.198420477 0          0          0         
35               45.38675996 0.292240895 0          0          0         
36               45.70202708 0.380671742 0          0          0         
37               46.06609076 0.084208312 0          0          0         
38               46.39056   2.37744    0          0          0         
39               46.45152   2.31648    0          0          0         
40               46.9392    0.609      0          0          0         
41               48.52416   3.29184    0          0          0         
42               48.70704   2.7157     0          0          0         
43               49.78908   2.4384     0          0          0         
44               50.89112   2.6164     0          0          0         
45               51.05      4.16       0.21       0          0         
46               50.9016    1.524      0          0          0         
47               51.32832   2.946      0          0          0         
48               52.28844   1.984248   0.42       0          15000     
49               52.35702   1.8288     0          0          15000     
50               52.4256    2.1336     0.28       0          0         
51               54.19344   2.1336     0          0          0         
52               54.30012   2.3369     0          0          0         
53               54.58206   2.4384     0          0          0         
54               54.864     2.1631     0          0          0         
55               55.22976   2.2889     0          0          0         
56a              55.50408   2.3588     0          0          0         
57               56.0832    1.8288     0          0          0         
58               56.0832    5.1816     0          0          0         
59               56.0832    4.2672     0          0          0         
60               56.0832    3.6576     0          0          0         
61               56.0832    3.3528     0          0          0         
62               57.912     2.1336     0          0          0         
63               57.912     2.4384     0          0          0         
64               58.15584   2.509      0          0          0         
65               58.43016   2.7265     0          0          0         
66               58.5216    2.4384     0          0          0         
67               58.5216    3.048      0          0          0         
68               59.52744   2.6124     0          0          0         
69               59.80176   3.12469    0          0          0         
70               59.82368   3.3528     0          0          0         
71               60.0456    1.8288     0          0          0         
72               60.0456    2.7432     0          0          0         
73               60.0456    2.7432     0          0          0         
74               60.0456    2.7432     0          0          0         
75               60.6552    2.1336     0          0          0         
76               60.96      1.8288     0          0          0         
77               61.5696    2.4384     0          0          0         
78               61.5696    2.7432     0          0          15000     
79               62.179     2.438      0          0          15000     
80               62.61773   2.493170879 0          0          0         
81               62.82717   2.888833418 0          0          0         
82               63.03731   2.942891721 0          0          0         
83               63.24759   2.492209499 0          0          0         
84               63.45801   2.539888865 0          0          0         
85               63.66822   2.329678865 0          0          0         
86               63.87815   2.119748865 0          0          0         
87               64.08801   2.839686228 0          0          0         
88               64.29871   2.758487571 0          0          0         
89               64.50689   2.550307571 0          0          0         
90               64.78724   2.269957571 0          0          0         
91               64.99822   2.058977571 0          0          0         
92               65.20808   1.665623003 0          0          0         
93               65.41815   2.237649866 0          0          0         
94               65.62829   2.157110391 0          0          0         
95               65.83836   2.111041855 0          0          0         
96               66.04871   2.121692527 0          0          0         
97               66.25871   2.076487449 0          0          0         
98               66.28874   2.127161184 0          0          0         
99               66.31873   2.530871746 0          0          0         
100              66.3488    3.03589696 0          0          0         
101              66.37877   3.337126606 0          0          0         
102              66.43877   4.135433491 0          0          0         
103              66.49881   4.895988279 0          0          0         
104              66.55883   5.154770159 0          0          0         
105              66.61895   5.45324696 0          0          0         
106              66.67903   5.545167388 0          0          0         
107              66.73909   5.482513394 0          0          0         
108              66.79909   5.327412991 0          0          0         
109              66.85907   4.522033516 0          0          0         
110              66.91915   3.590249414 0          0          0         
111              66.97345   3.81964845 0          0          0         
112              67.05569   2.258213809 0          0          0         
113              67.65069   2.566412051 0          0          0         
114              68.34629   5.627312295 0          0          0         
115              68.94769   6.685809146 0          0          0         
116              69.81009   6.628409451 0          0          0         
117              70.41329   3.93071177 0          0          0         
118              71.01189   3.56321376 0          0          0         
119              71.61109   1.793412869 0          0          0         
120              72.20969   1.214809512 0          0          0         
121              72.82029   1.318412393 0          0          0         
122              73.44989   1.954307693 0          0          0         
123              74.13969   1.296810549 0          0          0         
124              72.52489   2.987111038 0          0          0         
125              72.82589   1.910209243 0          0          0         
126              73.12589   1.224306838 0          0          0         
127              73.42609   1.272609951 0          0          0         
128              73.75959   1.285308987 0          0          0         
129              74.11499   2.512008901 0          0          0         
130              74.60699   4.057408193 0          0          0         
131              75.10519   4.31731061 0          0          0         
132              64.93749   2.060808645 0          0          0         
133              65.08819   2.369810183 0          0          0         
134              65.23849   1.805806265 0          0          0         
135              65.38864   1.741158889 0          0          0         
136              65.53829   1.822008157 0          0          0         
137              65.562965  2.216637051 0          0          0         
138              65.578005  0.296598272 0          0          0         
139              65.593085  0.107316306 0          0          0         
140              65.60818   0.220418023 0          0          0         
141              65.62453   0.486073333 0          0          0         
142              65.641795  0.733006636 0          0          0         
143              65.65783   0.746466875 0          0          0         
144              65.67296   1.196340842 0          0          0         
145              65.68929   1.062006997 0          0          0         
146              65.70479   1.276113626 0          0          0         
147              65.720665  1.438934304 0          0          0         
148              65.73699   1.780611013 0          0          0         
149              65.75199   2.234307607 0          0          0         
150              66.38059   3.229708157 0          0          0         
151              66.81539   3.499909988 0          0          0         
152              67.41659   2.63330624 0          0          0         
153              68.01699   2.165711111 0          0          0         
154              68.61699   1.792113394 0.4        0          0         
155              69.21739   1.61061293 0.4        0          0         
156              69.82219   0.91621332 0.4        0          0         
157              70.42399   0.65740801 0.4        0          0         
158              71.02419   0.481310794 0          0          0         
160              45.5472    2.581000531 0          0          0         
161              45.64389   2.161209487 0          0          0         
162              45.73479   2.659909097 0          0          0         
163              45.82641   1.49408942 0          0          0         
164              45.91668   1.510718682 0          0          0         
165              46.00638   1.558820806 0          0          0         
166              46.09767   1.20903166 0          0          0         
167              46.27728   1.547919127 0          0          0         
168              46.36737   1.92503036 0          0          0         
169              46.45761   2.158688676 0          0          0         
170              46.54773   1.54576823 0          0          0         
171              46.71216   2.120340458 0          0          0         
172              47.2838    2.183099872 0          0          0         
173              48.012     1.637398804 0          0          0         
174              49.3575    1.165201263 0          0          0         
47a              52.21224   2.2585     0          0          0         
47b              52.24272   2.2281     0          0          0         
56b              55.50408   2.3588     0          0          0         
159              71.50739   0.0        0.35       0          0

;;____________________________________________________________________________________________________
[OUTFALLS]
;;Name           Elevation  Type       Stage Data       Gated    Route To        
;;-------------- ---------- ---------- ---------------- -------- ----------------
0                32.386299  FIXED      34.386299        NO

;;____________________________________________________________________________________________________
[DWF]
;;Node           Constituent      Baseline   Patterns  
;;-------------- ---------------- ---------- ----------
53               FLOW             1.3        ""
159              FLOW             1.75

;;____________________________________________________________________________________________________
[CONDUITS]
;;Name           From Node        To Node          Length     Roughness  InOffset   OutOffset  InitFlow   MaxFlow   
;;-------------- ---------------- ---------------- ---------- ---------- ---------- ---------- ---------- ----------
1                1                0                50.04      0.03       0          0          0          0         
2                2                1                50.35      0.03       0          0          0          0         
3                3                2                49.89      0.03       0          0          0          0         
4                4                3                50.84      0.03       0          0          0          0         
5                5                4                50.24      0.03       0          0          0          0         
6                6                5                50.12      0.03       0          0          0          0         
7                7                6                49.99      0.03       0          0          0          0         
8                8                7                50.18      0.03       0          0          0          0         
9                9                8                50.04      0.03       0          0          0          0         
10               10               9                50.75      0.03       0          0          0          0         
11               11               10               50.20      0.03       0          0          0          0         
12               12               11               50.20      0.03       0          0          0          0         
13               13               12               50.09      0.03       0          0          0          0         
14               14               13               50.43      0.03       0          0          0          0         
15               15               14               50.13      0.03       0          0          0          0         
16               16               15               51.09      0.03       0          0          0          0         
17               17               16               50.20      0.03       0          0          0          0         
18               18               17               50.65      0.03       0          0          0          0         
19               19               18               51.12      0.03       0          0          0          0         
20               20               19               50.54      0.03       0          0          0          0         
21               21               20               54.90      0.03       0          0          0          0         
22               22               21               51.40      0.03       0          0          0          0         
23               23               22               53.76      0.03       0          0          0          0         
24               24               23               51.11      0.03       0          0          0          0         
25               25               24               19.39      0.03       0          0          0          0         
26               26               25               29.38      0.03       0          0          0          0         
27               27               26               52.00      0.03       0          0          0          0         
28               28               27               50.40      0.03       0          0          0          0         
29               29               28               72.09      0.03       0          0          0          0         
30               30               29               55.83      0.03       0          0          0          0         
31               31               30               51.90      0.03       0          0          0          0         
32               32               31               50.32      0.03       0          0          0          0         
33               33               32               51.48      0.03       0          0          0          0         
34               34               33               50.24      0.03       0          0          0          0         
35               35               34               54.85      0.03       0          0          0          0         
36               36               35               50.33      0.03       0          0          0          0         
37               37               36               58.12      0.03       0          0          0          0         
38               38               37               51.87      0.03       0          0          0          0         
39               39               38               13.08      0.013      0          0          0          0         
40               40               39               69.07      0.01       0          0          0          0         
41               41               40               44.03      0.01       0          0          0          0         
42               42               41               88.83      0.013      0          0          0          0         
43               43               42               50.06      0.01       0          0          0          0         
44               44               43               65.19      0.01       0          0          0          0         
45               45               44               17.84      0.01       0          0          0          0         
46               46               45               49.96      0.01       0          0          0          0         
47               47               46               31.30      0.01       0          0          0          0         
47a              47a              47               21.82      0.013      0          0          0          0         
49               49               48               43.86      0.01       0          0          0          0         
50               50               49               49.99      0.01       0          0          0.5        0         
51               51               50               52.42      0.01       0          0          0          0         
52               52               51               18.27      0.015      0          0          0          0         
53               53               52               50.47      0.01       0          0          0          0         
54               54               53               27.36      0.01       0          0          0          0         
55               55               54               50.21      0.013      0          0          0          0         
56a              56a              55               45.42      0.01       0          0          0          0         
57               57               56b              50.90      0.01       0          0          0          0         
58               58               57               50.05      0.01       0          0          0          0         
59               59               58               49.97      0.01       0          0          0          0         
60               60               59               50.03      0.01       0          0          0          0         
61               61               60               50.55      0.01       0          0          0          0         
62               62               61               52.34      0.01       0          1          0          0         
63               63               62               49.86      0.01       0          0          0          0         
64               64               63               43.15      0.01       0          0          0          0         
65               65               64               28.43      0.013      0          0          0          0         
66               66               65               51.31      0.01       0          0          0          0         
67               67               66               50.88      0.01       0          0          0          0         
68               68               67               72.68      0.01       0          0.5        0          0         
70               70               69               50.16      0.01       0          0          0          0         
71               71               70               51.06      0.01       0          0          0          0         
72               72               71               50.06      0.01       0          0          0          0         
73               73               72               50.16      0.01       0          0          0          0         
74               74               73               50.54      0.01       0          0          0          0         
75               75               74               50.56      0.01       0          0          0          0         
76               76               75               52.58      0.01       0          0          0          0         
77               77               76               51.85      0.01       0          0          0          0         
78               78               77               50.55      0.01       0          0          0          0         
79               79               78               41.11      0.01       0          0          0          0         
80               80               79               29.99      0.015      0          0          0          0         
81               81               80               29.92      0.015      0          0          0          0         
82               82               81               30.02      0.015      0          0          0          0         
83               83               82               30.04      0.015      0          0          0          0         
84               84               83               30.06      0.015      0          0          0          0         
85               85               84               30.03      0.015      0          0          0          0         
86               86               85               29.99      0.015      0          0          0          0         
87               87               86               29.98      0.015      0          0          0          0         
88               88               87               30.10      0.015      0          0          0          0         
89               89               88               29.74      0.015      0          0          0          0         
90               90               89               40.05      0.015      0          0          0          0         
91               91               90               30.14      0.015      0          0          0          0         
92               92               91               29.98      0.015      0          0          0          0         
93               93               92               30.01      0.015      0          0          0          0         
94               94               93               30.02      0.015      0          0          0          0         
95               95               94               30.01      0.015      0          0          0          0         
96               96               95               30.05      0.015      0          0          0          0         
97               97               96               30.00      0.015      0          0          0          0         
98               98               97               30.03      0.015      0          0          0          0         
99               99               98               29.99      0.015      0          0          0          0         
100              100              99               30.07      0.015      0          0          0          0         
101              101              100              29.97      0.015      0          0          0          0         
102              102              101              30.00      0.015      0          0          0          0         
103              103              102              30.02      0.015      0          0          0          0         
104              104              103              30.01      0.015      0          0          0          0         
105              105              104              30.06      0.015      0          0          0          0         
106              106              105              30.04      0.015      0          0          0          0         
107              107              106              30.03      0.015      0          0          0          0         
108              108              107              30.00      0.015      0          0          0          0         
109              109              108              29.99      0.015      0          0          0          0         
110              110              109              30.04      0.015      0          0          0          0         
111              111              110              27.15      0.015      0          0          0          0         
112              112              111              41.12      0.015      0          0          0          0         
113              113              112              29.75      0.03       0          0          0          0         
114              114              113              34.78      0.03       0          0          0          0         
115              115              114              30.07      0.03       0          0          0          0         
116              116              115              43.12      0.03       0          0          0          0         
117              117              116              30.16      0.015      0          0          0          0         
118              118              117              29.93      0.015      0          0          0          0         
119              119              118              29.96      0.04       0          0          0          0         
120              120              119              29.93      0.04       0          0          0          0         